tests/corpus/electricdss-tst/Test/indmachtest/LineCode.DSS
New "LineCode.336matrix" nphases=3 rmatrix=[  0.08684550   0.02983050   0.02888830 |  0.02983050   0.08879660   0.02983050 |  0.02888830   0.02983050   0.08684550 ] xmatrix=[  0.20254490   0.08472100   0.07191610 |  0.08472100   0.19614520   0.08472100 |  0.07191610   0.08472100   0.20254490 ] cmatrix=[  2.74000000  -0.70000000  -0.34000000 | -0.70000000   2.96000000  -0.71000000 | -0.34000000  -0.71000000   2.74000000 ] normamps=400 emergamps=600 units=kft
New "LineCode.oh_556_neutral_4/0_phase_3" nphases=3 baseFreq=60 rmatrix=[  0.34650000   0.15600000   0.15800000 |  0.15600000   0.33750000   0.15350000 |  0.15800000   0.15350000   0.34140000 ] xmatrix=[  1.01790000   0.50170000   0.42360000 |  0.50170000   1.04780000   0.38490000 |  0.42360000   0.38490000   1.03480000 ] cmatrix=[ 16.71100000  -5.29500000  -3.34100000 | -5.29500000  15.80900000  -1.96800000 | -3.34100000  -1.96800000  14.95700000 ] units=mi
New "LineCode.oh_4/0_neutral_4/0_phase_3" nphases=3 baseFreq=60 rmatrix=[  0.75260000   0.15800000   0.15600000 |  0.15800000   0.74750000   0.15350000 |  0.15600000   0.15350000   0.74360000 ] xmatrix=[  1.18140000   0.42360000   0.50170000 |  0.42360000   1.19830000   0.38490000 |  0.50170000   0.38490000   1.21120000 ] cmatrix=[ 15.11800000  -2.87000000  -4.48500000 | -2.87000000  13.74000000  -1.74800000 | -4.48500000  -1.74800000  14.39000000 ] units=mi
New "LineCode.oh_2/0_neutral_2_phase_3" nphases=3 units=mi rmatrix=[  1.11022000   0.23891300   0.23241500 |  0.23891300   1.12350000   0.23891300 |  0.23241500   0.23891300   1.11022000 ] xmatrix=[  1.39884000   0.63934900   0.52223600 |  0.63934900   1.38292000   0.56802700 |  0.52223600   0.56802700   1.39884000 ] cmatrix=[ 13.81460000  -4.19828000  -1.71749000 | -4.19828000  14.45790000  -2.76809000 | -1.71749000  -2.76809000  13.12540000 ]
New "LineCode.oh_397_neutral_2/0_phase_3" nphases=3 units=mi rmatrix=[  0.44124900   0.18154700   0.18751000 |  0.18154700   0.43229600   0.18287100 |  0.18751000   0.18287100   0.44404000 ] xmatrix=[  1.10730000   0.54161800   0.50126100 |  0.54161800   1.12743000   0.56863000 |  0.50126100   0.56863000   1.10106000 ] cmatrix=[ 15.40700000  -4.08616000  -3.08337000 | -4.08616000  15.95080000  -4.88709000 | -3.08337000  -4.88709000  15.94340000 ]
New "LineCode.oh_795_neutral_397_phase_3" nphases=3 units=mi rmatrix=[  0.22185500   0.09141520   0.09372060 |  0.09141520   0.21843000   0.09191090 |  0.09372060   0.09191090   0.22293200 ] xmatrix=[  0.95729100   0.43780100   0.39198400 |  0.43780100   0.98563200   0.46358400 |  0.39198400   0.46358400   0.94848200 ] cmatrix=[ 16.55360000  -4.53394000  -3.35316000 | -4.53394000  17.20830000  -5.46505000 | -3.35316000  -5.46505000  17.20010000 ]
New "LineCode.oh_2_neutral_2_phase_1" nphases=1 units=mi rmatrix=[  1.83263000 ] xmatrix=[  1.42172000 ] cmatrix=[ 11.18190000 ]
New "LineCode.ud_250_aa_cn" nphases=3 baseFreq=60 rmatrix=[  0.79820000   0.31920000   0.28490000 |  0.31920000   0.78910000   0.31920000 |  0.28490000   0.31920000   0.79820000 ] xmatrix=[  0.44630000   0.03280000  -0.01430000 |  0.03280000   0.40410000   0.03280000 | -0.01430000   0.03280000   0.44630000 ] cmatrix=[257.00000000   0.00000000   0.00000000 |  0.00000000 257.00000000   0.00000000 |  0.00000000   0.00000000 257.00000000 ] units=mi
New "LineCode.ud_1/0_ts_neut_1/0_cu" nphases=1 baseFreq=60 rmatrix=[  1.34250000 ] xmatrix=[  0.51240000 ] cmatrix=[236.00000000 ] units=mi
New "LineCode.triplex_4/0" nphases=2 baseFreq=60 rmatrix=[  0.15635003   0.06468336 |  0.06468336   0.15635003 ] xmatrix=[  0.07856455   0.03936049 |  0.03936049   0.07856455 ] units=kft
New "LineCode.triplex_2" nphases=2 baseFreq=60 rmatrix=[  0.40995115   0.11809509 |  0.11809509   0.40995115 ] xmatrix=[  0.16681819   0.12759250 |  0.12759250   0.16681819 ] units=kft
New "LineCode.petrobras" nphases=3 units=mi r1=0.3066 x1=0.63284 r0=0.59267 x0=3.3239 C1=15 C0=10
